******
** ngspice-46 : Circuit level simulation program
** Compiled with KLU Direct Linear Solver
** The U. C. Berkeley CAD Group
** Copyright 1985-1994, Regents of the University of California.
** Copyright 2001-2025, The ngspice team.
** Please get your ngspice manual from https://ngspice.sourceforge.io/docs.html
** Please file your bug-reports at http://ngspice.sourceforge.net/bugrep.html
** Creation Date: Mon Jun 22 10:09:10 UTC 2026
******
ERROR: (external)  no graphics interface;
 please check if X-server is running,
 or ngspice is compiled properly (see INSTALL)

Note: No compatibility mode selected!


Circuit: ** sch_path: /evidence/generated/inverter-source/inverter_tb.sch

Error: unknown subckt: x_openada_native vout __openada_missing_subckt
    in line no. 25 from file /evidence/negative/tran-native-error.spice
    Simulation interrupted due to error!

ngspice-46 done
