
Note: No compatibility mode selected!


Circuit: ** sch_path: /design/modules/module_0_foundations/inverter/inverter_tb.sch

binary raw file "/tmp/openada-ngspice-72_2le2t/simulation.raw"
Doing analysis at TEMP = 27.000000 and TNOM = 27.000000

Using SPARSE 1.3 as Direct Linear Solver
No. of Data Columns : 13  
Note: Starting dynamic gmin stepping
Warning: Dynamic gmin stepping failed
Note: Starting true gmin stepping
Warning: True gmin stepping failed
Note: Starting source stepping
Note: Source stepping completed

Initial Transient Solution
--------------------------

Node                                   Voltage
----                                   -------
vin                                          0
vdd                                        1.2
vout                                       1.2
__openada_fail                        -10.0002
v2#branch                         -3.10217e-10
v1#branch                          8.18116e-11


No. of Data Rows : 162
doAnalyses: TRAN:  Timestep too small; time = 0.0001045, timestep = 1.25e-18: trouble with node "__openada_fail"


run simulation(s) aborted

Total analysis time (seconds) = 0.115813

Total elapsed time (seconds) = 0.130 

Total DRAM available = 773205.535 MB.
DRAM currently available = 201843.414 MB.
Maximum ngspice program size =  531.715 MB.
Current ngspice program size =   14.672 MB.

Shared ngspice pages =   11.367 MB.
Text (code) pages =    6.562 MB.
Stack = 0 bytes.
Library pages =   60.199 MB.

