
Note: No compatibility mode selected!


Circuit: ** sch_path: /evidence/work/ihp-ota/ota_testbench.sch

binary raw file "/tmp/openada-ngspice-r2oqim5t/simulation.raw"
Doing analysis at TEMP = 27.000000 and TNOM = 27.000000

Using SPARSE 1.3 as Direct Linear Solver
Note: Starting dynamic gmin stepping
Note: Dynamic gmin stepping completed
No. of Data Columns : 29  

No. of Data Rows : 51

Total analysis time (seconds) = 0.015316

Total elapsed time (seconds) = 0.035 

Total DRAM available = 32106.207 MB.
DRAM currently available = 12846.969 MB.
Maximum ngspice program size =  531.730 MB.
Current ngspice program size =   15.199 MB.

Shared ngspice pages =   11.691 MB.
Text (code) pages =    5.875 MB.
Stack = 0 bytes.
Library pages =   60.215 MB.

