
Note: No compatibility mode selected!


Circuit: ** sch_path: /design/modules/module_0_foundations/inverter/inverter_tb.sch

binary raw file "/tmp/openada-ngspice-1ermne18/simulation.raw"
Doing analysis at TEMP = 27.000000 and TNOM = 27.000000

Using SPARSE 1.3 as Direct Linear Solver
No. of Data Columns : 12  

Initial Transient Solution
--------------------------

Node                                   Voltage
----                                   -------
vin                                          0
vdd                                        1.2
vout                                       1.2
v2#branch                         -3.10217e-10
v1#branch                          8.18116e-11


No. of Data Rows : 81

Total analysis time (seconds) = 0.0258772

Total elapsed time (seconds) = 0.043 

Total DRAM available = 32106.207 MB.
DRAM currently available = 12979.484 MB.
Maximum ngspice program size =  531.711 MB.
Current ngspice program size =   14.590 MB.

Shared ngspice pages =   11.289 MB.
Text (code) pages =    5.875 MB.
Stack = 0 bytes.
Library pages =   60.195 MB.

