
*****
***** Welcome to the Xyce(TM) Parallel Electronic Simulator
*****
***** This is version Xyce Release 7.10-opensource
***** Date: Tue Jul 21 21:05:57 CEST 2026


***** Executing netlist /evidence/work/xyce-tran.cir

***** Reading and parsing netlist...
Netlist warning: No print specified
***** Setting up topology...

***** Device Count Summary ...
       R level 1 (Resistor)                   1
       V level 1 (Independent Voltage Source) 1
       ----------------------------------------
       Total Devices                          2
***** Setting up matrix structure...
***** Number of Unknowns = 2
***** Initializing...

***** Beginning DC Operating Point Calculation...

***** Beginning Transient Calculation...

***** Percent complete: 1.5 %
***** Current system time: Tue Jul 21 21:05:57 2026
***** Estimated time to completion:  0 sec.

***** Percent complete: 3.5 %
***** Current system time: Tue Jul 21 21:05:57 2026
***** Estimated time to completion:  0 sec.

***** Percent complete: 7.5 %
***** Current system time: Tue Jul 21 21:05:57 2026
***** Estimated time to completion:  0 sec.

***** Percent complete: 11.5 %
***** Current system time: Tue Jul 21 21:05:57 2026
***** Estimated time to completion:  0 sec.

***** Percent complete: 19.5 %
***** Current system time: Tue Jul 21 21:05:57 2026
***** Estimated time to completion:  0 sec.

***** Percent complete: 27.5 %
***** Current system time: Tue Jul 21 21:05:57 2026
***** Estimated time to completion:  0 sec.

***** Percent complete: 35.5 %
***** Current system time: Tue Jul 21 21:05:57 2026
***** Estimated time to completion:  0 sec.

***** Percent complete: 43.5 %
***** Current system time: Tue Jul 21 21:05:57 2026
***** Estimated time to completion:  0 sec.

***** Percent complete: 51.5 %
***** Current system time: Tue Jul 21 21:05:57 2026
***** Estimated time to completion:  0 sec.

***** Percent complete: 59.5 %
***** Current system time: Tue Jul 21 21:05:57 2026
***** Estimated time to completion:  0 sec.

***** Percent complete: 67.5 %
***** Current system time: Tue Jul 21 21:05:57 2026
***** Estimated time to completion:  0 sec.

***** Percent complete: 75.5 %
***** Current system time: Tue Jul 21 21:05:57 2026
***** Estimated time to completion:  0 sec.

***** Percent complete: 83.5 %
***** Current system time: Tue Jul 21 21:05:57 2026
***** Estimated time to completion:  0 sec.

***** Percent complete: 91.5 %
***** Current system time: Tue Jul 21 21:05:57 2026
***** Estimated time to completion:  0 sec.

***** Percent complete: 99.5 %
***** Current system time: Tue Jul 21 21:05:57 2026
***** Estimated time to completion:  0 sec.

***** Problem read in and set up time: 0.00324678 seconds
 ***** DCOP time: 0.000851154 seconds.  Breakdown follows:
	Number Successful Steps Taken:		1
	Number Failed Steps Attempted:		0
	Number Jacobians Evaluated:		1
	Number Linear Solves:			1
	Number Failed Linear Solves:		0
	Number Residual Evaluations:		3
	Number Nonlinear Convergence Failures:	0
	Total Residual Load Time:		2.81334e-05 seconds
	Total Jacobian Load Time:		6.91414e-06 seconds
	Total Linear Solution Time:		8.08239e-05 seconds

 ***** Transient Stepping time: 0.000782013 seconds.  Breakdown follows:
	Number Successful Steps Taken:		17
	Number Failed Steps Attempted:		0
	Number Jacobians Evaluated:		17
	Number Linear Solves:			17
	Number Failed Linear Solves:		0
	Number Residual Evaluations:		34
	Number Nonlinear Convergence Failures:	0
	Total Residual Load Time:		7.05719e-05 seconds
	Total Jacobian Load Time:		2.83718e-05 seconds
	Total Linear Solution Time:		5.4121e-05 seconds


***** Solution Summary *****
	Number Successful Steps Taken:		18
	Number Failed Steps Attempted:		0
	Number Jacobians Evaluated:		18
	Number Linear Solves:			18
	Number Failed Linear Solves:		0
	Number Residual Evaluations:		37
	Number Nonlinear Convergence Failures:	0
	Total Residual Load Time:		9.87053e-05 seconds
	Total Jacobian Load Time:		3.52859e-05 seconds
	Total Linear Solution Time:		0.000134945 seconds


***** Total Simulation Solvers Run Time: 0.00180197 seconds
***** Total Elapsed Run Time:            0.00502682 seconds
*****
***** End of Xyce(TM) Simulation
*****

Timing summary of 1 processor
                 Stats                   Count       CPU Time              Wall Time
---------------------------------------- ----- --------------------- ---------------------
Xyce                                         1        0.194 (100.0%)        0.652 (100.0%)
  Analysis                                   1        0.001 ( 0.50%)        0.002 ( 0.27%)
    Transient                                1        0.001 ( 0.50%)        0.002 ( 0.27%)
      Nonlinear Solve                       18        0.001 ( 0.28%)        0.001 ( 0.14%)
        Residual                            37        0.000 ( 0.02%)        0.000 ( 0.02%)
        Jacobian                            18        0.000 ( 0.02%)        0.000 ( 0.01%)
        Linear Solve                        18        0.000 ( 0.05%)        0.000 ( 0.02%)
      Successful DCOP Steps                  1        0.000 ( 0.11%)        0.000 ( 0.03%)
      Successful Step                       17        0.000 ( 0.01%)        0.000 ( 0.02%)
  Netlist Import                             1        0.001 ( 0.65%)        0.001 ( 0.22%)
    Parse Context                            1        0.000 ( 0.10%)        0.000 ( 0.03%)
    Distribute Devices                       1        0.000 ( 0.14%)        0.000 ( 0.04%)
    Verify Devices                           1        0.000 (<0.01%)        0.000 (<0.01%)
    Instantiate                              1        0.000 ( 0.06%)        0.000 ( 0.02%)
  Late Initialization                        1        0.001 ( 0.36%)        0.001 ( 0.11%)
    Global Indices                           1        0.000 ( 0.02%)        0.000 (<0.01%)
  Setup Matrix Structure                     1        0.000 ( 0.11%)        0.000 ( 0.03%)

