
*****
***** Welcome to the Xyce(TM) Parallel Electronic Simulator
*****
***** This is version Xyce Release 7.10-opensource
***** Date: Thu Jul 16 17:21:50 CEST 2026


***** Executing netlist /evidence/work/xyce-tran.cir

***** Reading and parsing netlist...
Netlist warning: No print specified
***** Setting up topology...

***** Device Count Summary ...
       R level 1 (Resistor)                   1
       V level 1 (Independent Voltage Source) 1
       ----------------------------------------
       Total Devices                          2
***** Setting up matrix structure...
***** Number of Unknowns = 2
***** Initializing...

***** Beginning DC Operating Point Calculation...

***** Beginning Transient Calculation...

***** Percent complete: 1.5 %
***** Current system time: Thu Jul 16 17:21:50 2026
***** Estimated time to completion:  0 sec.

***** Percent complete: 3.5 %
***** Current system time: Thu Jul 16 17:21:50 2026
***** Estimated time to completion:  0 sec.

***** Percent complete: 7.5 %
***** Current system time: Thu Jul 16 17:21:50 2026
***** Estimated time to completion:  0 sec.

***** Percent complete: 11.5 %
***** Current system time: Thu Jul 16 17:21:50 2026
***** Estimated time to completion:  0 sec.

***** Percent complete: 19.5 %
***** Current system time: Thu Jul 16 17:21:50 2026
***** Estimated time to completion:  0 sec.

***** Percent complete: 27.5 %
***** Current system time: Thu Jul 16 17:21:50 2026
***** Estimated time to completion:  0 sec.

***** Percent complete: 35.5 %
***** Current system time: Thu Jul 16 17:21:50 2026
***** Estimated time to completion:  0 sec.

***** Percent complete: 43.5 %
***** Current system time: Thu Jul 16 17:21:50 2026
***** Estimated time to completion:  0 sec.

***** Percent complete: 51.5 %
***** Current system time: Thu Jul 16 17:21:50 2026
***** Estimated time to completion:  0 sec.

***** Percent complete: 59.5 %
***** Current system time: Thu Jul 16 17:21:50 2026
***** Estimated time to completion:  0 sec.

***** Percent complete: 67.5 %
***** Current system time: Thu Jul 16 17:21:50 2026
***** Estimated time to completion:  0 sec.

***** Percent complete: 75.5 %
***** Current system time: Thu Jul 16 17:21:50 2026
***** Estimated time to completion:  0 sec.

***** Percent complete: 83.5 %
***** Current system time: Thu Jul 16 17:21:50 2026
***** Estimated time to completion:  0 sec.

***** Percent complete: 91.5 %
***** Current system time: Thu Jul 16 17:21:50 2026
***** Estimated time to completion:  0 sec.

***** Percent complete: 99.5 %
***** Current system time: Thu Jul 16 17:21:50 2026
***** Estimated time to completion:  0 sec.

***** Problem read in and set up time: 0.0036459 seconds
 ***** DCOP time: 0.000987053 seconds.  Breakdown follows:
	Number Successful Steps Taken:		1
	Number Failed Steps Attempted:		0
	Number Jacobians Evaluated:		1
	Number Linear Solves:			1
	Number Failed Linear Solves:		0
	Number Residual Evaluations:		3
	Number Nonlinear Convergence Failures:	0
	Total Residual Load Time:		3.91006e-05 seconds
	Total Jacobian Load Time:		9.05991e-06 seconds
	Total Linear Solution Time:		0.000108957 seconds

 ***** Transient Stepping time: 0.000892878 seconds.  Breakdown follows:
	Number Successful Steps Taken:		17
	Number Failed Steps Attempted:		0
	Number Jacobians Evaluated:		17
	Number Linear Solves:			17
	Number Failed Linear Solves:		0
	Number Residual Evaluations:		34
	Number Nonlinear Convergence Failures:	0
	Total Residual Load Time:		0.000107288 seconds
	Total Jacobian Load Time:		3.88622e-05 seconds
	Total Linear Solution Time:		7.65324e-05 seconds


***** Solution Summary *****
	Number Successful Steps Taken:		18
	Number Failed Steps Attempted:		0
	Number Jacobians Evaluated:		18
	Number Linear Solves:			18
	Number Failed Linear Solves:		0
	Number Residual Evaluations:		37
	Number Nonlinear Convergence Failures:	0
	Total Residual Load Time:		0.000146389 seconds
	Total Jacobian Load Time:		4.79221e-05 seconds
	Total Linear Solution Time:		0.00018549 seconds


***** Total Simulation Solvers Run Time: 0.00208902 seconds
***** Total Elapsed Run Time:            0.00570989 seconds
*****
***** End of Xyce(TM) Simulation
*****

Timing summary of 1 processor
                 Stats                   Count       CPU Time              Wall Time
---------------------------------------- ----- --------------------- ---------------------
Xyce                                         1        0.021 (100.0%)        0.290 (100.0%)
  Analysis                                   1        0.002 ( 9.84%)        0.002 ( 0.71%)
    Transient                                1        0.002 ( 9.72%)        0.002 ( 0.70%)
      Nonlinear Solve                       18        0.001 ( 5.23%)        0.001 ( 0.38%)
        Residual                            37        0.000 ( 0.99%)        0.000 ( 0.07%)
        Jacobian                            18        0.000 ( 0.32%)        0.000 ( 0.02%)
        Linear Solve                        18        0.000 ( 0.97%)        0.000 ( 0.07%)
      Successful DCOP Steps                  1        0.000 ( 1.37%)        0.000 ( 0.10%)
      Successful Step                       17        0.000 ( 0.81%)        0.000 ( 0.06%)
  Netlist Import                             1        0.001 ( 6.63%)        0.002 ( 0.56%)
    Parse Context                            1        0.000 ( 0.33%)        0.000 ( 0.07%)
    Distribute Devices                       1        0.000 ( 1.48%)        0.000 ( 0.11%)
    Verify Devices                           1        0.000 ( 0.05%)        0.000 (<0.01%)
    Instantiate                              1        0.000 ( 0.55%)        0.000 ( 0.04%)
  Late Initialization                        1        0.001 ( 4.23%)        0.001 ( 0.30%)
    Global Indices                           1        0.000 ( 0.22%)        0.000 ( 0.02%)
  Setup Matrix Structure                     1        0.000 ( 1.11%)        0.000 ( 0.08%)

