
Note: No compatibility mode selected!


Circuit: ** sch_path: /evidence/work/ihp-inverter/inverter_tb.sch

binary raw file "/tmp/openada-ngspice-xpru4ecs/simulation.raw"
Doing analysis at TEMP = 27.000000 and TNOM = 27.000000

Using SPARSE 1.3 as Direct Linear Solver
No. of Data Columns : 11  

No. of Data Rows : 1

Total analysis time (seconds) = 0.00245106

Total elapsed time (seconds) = 0.023 

Total DRAM available = 32106.207 MB.
DRAM currently available = 17030.312 MB.
Maximum ngspice program size =  531.715 MB.
Current ngspice program size =   14.609 MB.

Shared ngspice pages =   11.309 MB.
Text (code) pages =    5.875 MB.
Stack = 0 bytes.
Library pages =   60.199 MB.

