
Note: No compatibility mode selected!


Circuit: ** sch_path: /evidence/work/ihp-inverter/inverter_tb.sch

binary raw file "/tmp/openada-ngspice-nobzsm3j/simulation.raw"
Doing analysis at TEMP = 27.000000 and TNOM = 27.000000

Using SPARSE 1.3 as Direct Linear Solver
No. of Data Columns : 11  

No. of Data Rows : 1

Total analysis time (seconds) = 0.00191947

Total elapsed time (seconds) = 0.018 

Total DRAM available = 773205.535 MB.
DRAM currently available = 201680.840 MB.
Maximum ngspice program size =  531.598 MB.
Current ngspice program size =   20.699 MB.

Shared ngspice pages =   11.410 MB.
Text (code) pages =    6.562 MB.
Stack = 0 bytes.
Library pages =   60.082 MB.

