******
** ngspice-46 : Circuit level simulation program
** Compiled with KLU Direct Linear Solver
** The U. C. Berkeley CAD Group
** Copyright 1985-1994, Regents of the University of California.
** Copyright 2001-2025, The ngspice team.
** Please get your ngspice manual from https://ngspice.sourceforge.io/docs.html
** Please file your bug-reports at http://ngspice.sourceforge.net/bugrep.html
** Creation Date: Mon Jun 22 10:09:10 UTC 2026
******
ERROR: (external)  no graphics interface;
 please check if X-server is running,
 or ngspice is compiled properly (see INSTALL)

Note: No compatibility mode selected!


Circuit: ** deliberate ngspice engine-boundary injection; the inverter dut remains unchanged.

Doing analysis at TEMP = 27.000000 and TNOM = 27.000000

Using SPARSE 1.3 as Direct Linear Solver
Note: Starting dynamic gmin stepping
Warning: Dynamic gmin stepping failed
Note: Starting true gmin stepping
Warning: True gmin stepping failed
Note: Starting source stepping
Note: Source stepping completed

Initial Transient Solution
--------------------------

Node                                   Voltage
----                                   -------
vin                                          0
vdd                                        1.2
vout                                       1.2
__openada_fail                        -10.0002
v2#branch                         -3.10217e-10
v1#branch                          8.18116e-11


No. of Data Rows : 162
doAnalyses: TRAN:  Timestep too small; time = 0.0001045, timestep = 1.25e-18: trouble with node "__openada_fail"


tran simulation(s) aborted
binary raw file "test_inverter_fail.raw"
ngspice-46 done
