
Note: No compatibility mode selected!


Circuit: ** sch_path: /evidence/work/ihp-inverter/inverter_tb.sch

binary raw file "/tmp/openada-ngspice-_frzd2jy/simulation.raw"
Doing analysis at TEMP = 27.000000 and TNOM = 27.000000

Using SPARSE 1.3 as Direct Linear Solver
No. of Data Columns : 12  

No. of Data Rows : 13

Total analysis time (seconds) = 0.00810699

Total elapsed time (seconds) = 0.023 

Total DRAM available = 32106.207 MB.
DRAM currently available = 10535.523 MB.
Maximum ngspice program size =  531.707 MB.
Current ngspice program size =   14.633 MB.

Shared ngspice pages =   11.340 MB.
Text (code) pages =    5.875 MB.
Stack = 0 bytes.
Library pages =   60.191 MB.

