
Note: No compatibility mode selected!


Circuit: ** sch_path: /evidence/work/ihp-inverter/inverter_tb.sch

binary raw file "/tmp/openada-ngspice-2m3qy9l2/simulation.raw"
Doing analysis at TEMP = 27.000000 and TNOM = 27.000000

Using SPARSE 1.3 as Direct Linear Solver
No. of Data Columns : 12  

No. of Data Rows : 13

Total analysis time (seconds) = 0.00345949

Total elapsed time (seconds) = 0.019 

Total DRAM available = 773205.535 MB.
DRAM currently available = 201740.289 MB.
Maximum ngspice program size =  531.598 MB.
Current ngspice program size =   14.406 MB.

Shared ngspice pages =   11.117 MB.
Text (code) pages =    6.562 MB.
Stack = 0 bytes.
Library pages =   60.082 MB.

