
Note: No compatibility mode selected!


Circuit: ** sch_path: /evidence/work/ihp-inverter/inverter_tb.sch

binary raw file "/tmp/openada-ngspice-pf0szr9_/simulation.raw"
Doing analysis at TEMP = 27.000000 and TNOM = 27.000000

Using SPARSE 1.3 as Direct Linear Solver
No. of Data Columns : 12  

No. of Data Rows : 13

Total analysis time (seconds) = 0.00711543

Total elapsed time (seconds) = 0.023 

Total DRAM available = 32106.207 MB.
DRAM currently available = 10582.477 MB.
Maximum ngspice program size =  531.711 MB.
Current ngspice program size =   14.684 MB.

Shared ngspice pages =   11.387 MB.
Text (code) pages =    5.875 MB.
Stack = 0 bytes.
Library pages =   60.195 MB.

