
*****
***** Welcome to the Xyce(TM) Parallel Electronic Simulator
*****
***** This is version Xyce Release 7.10-opensource
***** Date: Sun Jul 19 13:37:19 CEST 2026


***** Executing netlist /evidence/work/xyce-ac-derived.cir

***** Reading and parsing netlist...
Netlist warning: No print specified
***** Setting up topology...

***** Device Count Summary ...
       C level 1 (Capacitor)                  1
       I level 1 (Independent Current Source) 1
       R level 1 (Resistor)                   1
       ----------------------------------------
       Total Devices                          3
***** Setting up matrix structure...
***** Number of Unknowns = 1
***** Initializing...


***** Solution Summary *****
	Number Successful Steps Taken:		51
	Number Failed Steps Attempted:		0
	Number Jacobians Evaluated:		1
	Number Linear Solves:			1
	Number Failed Linear Solves:		0
	Number Residual Evaluations:		3
	Number Nonlinear Convergence Failures:	0
	Total Residual Load Time:		4.50611e-05 seconds
	Total Jacobian Load Time:		8.82149e-06 seconds
	Total Linear Solution Time:		1.09673e-05 seconds


***** Total Simulation Solvers Run Time: 0.00172305 seconds
***** Total Elapsed Run Time:            0.00546503 seconds
*****
***** End of Xyce(TM) Simulation
*****

Timing summary of 1 processor
                 Stats                   Count       CPU Time              Wall Time
---------------------------------------- ----- --------------------- ---------------------
Xyce                                         1        0.018 (100.0%)        0.294 (100.0%)
  Analysis                                   1        0.002 ( 9.08%)        0.002 ( 0.57%)
    AC                                       1        0.002 ( 9.03%)        0.002 ( 0.56%)
      DC Nonlinear Solve                     1        0.001 ( 3.10%)        0.001 ( 0.19%)
        Residual                             3        0.000 ( 0.28%)        0.000 ( 0.02%)
        Jacobian                             1        0.000 ( 0.06%)        0.000 (<0.01%)
        Linear Solve                         1        0.000 ( 0.07%)        0.000 (<0.01%)
      AC Linear Solve                       51        0.000 ( 2.36%)        0.000 ( 0.14%)
        Linear Solve                        51        0.000 ( 1.78%)        0.000 ( 0.11%)
  Netlist Import                             1        0.001 ( 3.89%)        0.002 ( 0.61%)
    Parse Context                            1        0.000 ( 0.48%)        0.000 ( 0.08%)
    Distribute Devices                       1        0.000 ( 0.87%)        0.000 ( 0.14%)
    Verify Devices                           1        0.000 ( 0.02%)        0.000 (<0.01%)
    Instantiate                              1        0.000 ( 0.30%)        0.000 ( 0.05%)
  Late Initialization                        1        0.000 ( 1.76%)        0.001 ( 0.28%)
    Global Indices                           1        0.000 ( 0.08%)        0.000 ( 0.01%)
  Setup Matrix Structure                     1        0.000 ( 0.53%)        0.000 ( 0.08%)

